%nprocshared=64
%mem=60GB
%chk=npII_CCSDT-jun-cc-pVTZ.chk
#p CCSD(T) jun-cc-pVTZ

SP

0 1
 C              
 H                  1            B1
 H                  1            B2    2            A1
 C                  1            B3    3            A2    2            D1    0
 O                  4            B4    1            A3    3            D2    0
 N                  4            B5    1            A4    5            D3    0
 H                  6            B6    4            A5    1            D4    0
 C                  6            B7    4            A6    1            D5    0
 H                  8            B8    6            A7    4            D6    0
 H                  8            B9    6            A8    4            D7    0
 C                  8           B10    6            A9    4            D8    0
 O                 11           B11    8           A10    6            D9    0
 O                 11           B12    8           A11    6           D10    0
 H                 13           B13   11           A12    8           D11    0
 N                  1           B14    4           A13    5           D12    0
 H                 15           B15    1           A14    4           D13    0
 H                 15           B16    1           A15    4           D14    0

   B1             1.09325266
   B2             1.09226475
   B3             1.51842379
   B4             1.23621512
   B5             1.34016715
   B6             1.01064297
   B7             1.45290563
   B8             1.09419066
   B9             1.08630229
   B10            1.53000090
   B11            1.20547047
   B12            1.33554501
   B13            0.98634932
   B14            1.46093756
   B15            1.01068843
   B16            1.01227526
   A1           106.82669456
   A2           106.00689060
   A3           121.06245671
   A4           115.71847430
   A5           115.88441160
   A6           122.54673513
   A7           108.93103957
   A8           108.78837013
   A9           113.71276023
   A10          122.27418472
   A11          115.23589498
   A12          109.74230416
   A13          112.53744367
   A14          111.16001147
   A15          111.04355895
   D1           113.61777088
   D2           -71.55753721
   D3           179.51961606
   D4             1.27725863
   D5          -173.06572813
   D6            45.70826425
   D7           164.74880456
   D8           -75.18113326
   D9          -123.46052063
   D10           57.76538250
   D11           -0.34158446
   D12          168.75655791
   D13          149.07797914
   D14          -91.68667381

