%nprocshared=64
%mem=60GB
%chk=pI_CCSDT-jun-cc-pVTZ.chk
#p CCSD(T) jun-cc-pVTZ

SP

0 1
 C              
 H                  1            B1
 H                  1            B2    2            A1
 C                  1            B3    2            A2    3            D1    0
 O                  4            B4    1            A3    2            D2    0
 N                  4            B5    1            A4    5            D3    0
 H                  6            B6    4            A5    1            D4    0
 C                  6            B7    4            A6    1            D5    0
 H                  8            B8    6            A7    4            D6    0
 H                  8            B9    6            A8    4            D7    0
 C                  8           B10    6            A9    4            D8    0
 O                 11           B11    8           A10    6            D9    0
 O                 11           B12    8           A11    6           D10    0
 H                 13           B13   11           A12    8           D11    0
 N                  1           B14    4           A13    5           D12    0
 H                 15           B15    1           A14    4           D13    0
 H                 15           B16    1           A15    4           D14    0

   B1             1.09229759
   B2             1.09406201
   B3             1.52221127
   B4             1.22528151
   B5             1.34938160
   B6             1.01090861
   B7             1.43520849
   B8             1.09448604
   B9             1.09353514
   B10            1.50456053
   B11            1.20718050
   B12            1.34636766
   B13            0.96835830
   B14            1.46109010
   B15            1.01247787
   B16            1.01102590
   A1           106.86789433
   A2           106.10199249
   A3           121.57264013
   A4           115.06801880
   A5           119.09223052
   A6           120.76143338
   A7           111.89981000
   A8           111.32057598
   A9           109.67232631
   A10          125.38384062
   A11          111.09295075
   A12          106.72219646
   A13          112.96824042
   A14          111.00759592
   A15          111.00602739
   D1          -113.38625655
   D2            73.07471525
   D3          -179.07413117
   D4             0.24989722
   D5           178.26819011
   D6           -62.52474222
   D7            56.00893848
   D8           176.76898270
   D9             0.78783915
   D10         -179.41709065
   D11         -179.70887449
   D12         -167.66757997
   D13           85.47664944
   D14         -155.49263649



