%nprocshared=16
%mem=60GB
%chk=c7_HF-jun-cc-pV5Z.chk
#p HF/jun-cc-pv5z

SP

0 1
 C              
 C                  1            B1
 N                  2            B2    1            A1
 H                  3            B3    2            A2    1            D1    0
 H                  3            B4    2            A3    1            D2    0
 O                  2            B5    1            A4    3            D3    0
 N                  1            B6    2            A5    6            D4    0
 C                  7            B7    1            A6    2            D5    0
 O                  8            B8    7            A7    1            D6    0
 H                  7            B9    1            A8    2            D7    0
 C                  8           B10    7            A9    1            D8    0
 H                 11           B11    8           A10    7            D9    0
 H                 11           B12    8           A11    7           D10    0
 H                 11           B13    8           A12    7           D11    0
 H                  1           B14    7           A13    8           D12    0
 H                  1           B15    7           A14    8           D13    0

   B1             1.52634490
   B2             1.34920920
   B3             1.00902460
   B4             1.00343750
   B5             1.21789550
   B6             1.44985810
   B7             1.35231910
   B8             1.22569270
   B9             1.00292180
   B10            1.50439870
   B11            1.08711910
   B12            1.08754170
   B13            1.08811540
   B14            1.09018650
   B15            1.08510380
   A1           114.38250000
   A2           120.27050000
   A3           118.43258000
   A4           121.57778000
   A5           113.06464400
   A6           122.18944000
   A7           121.48595000
   A8           118.69578000
   A9           116.45356000
   A10          108.46917000
   A11          112.98447000
   A12          108.38476000
   A13          108.79567667
   A14          108.24431308
   D1             0.00000000
   D2           180.00000000
   D3          -180.00000000
   D4          -115.75674800
   D5           -82.09970000
   D6            -0.00000000
   D7            97.90030000
   D8           180.00000000
   D9           127.12351000
   D10            5.35417810
   D11         -115.85307000
   D12           38.88664877
   D13          157.99000975

