%chk=ccc_Best_geom_MP2_aug_cc-pVQZ.chk
%nprocshared=28
%mem=100GB
#p MP2 aug-cc-pvqz

start best geom PCCP paper

0 1
 N              
 H                  1            B1
 C                  1            B2    2            A1
 C                  3            B3    1            A2    2            D1    0
 H                  3            B4    1            A3    4            D2    0
 H                  3            B5    1            A4    4            D3    0
 O                  4            B6    3            A5    1            D4    0
 O                  4            B7    3            A6    1            D5    0
 H                  1            B8    3            A7    4            D6    0
 H                  8            B9    4            A8    3            D7    0

   B1             1.00910000
   B2             1.46090000
   B3             1.52520000
   B4             1.08910000
   B5             1.08900000
   B6             1.20010000
   B7             1.33560000
   B8             1.00800000
   B9             0.97600000
   A1           112.06460000
   A2           111.60450000
   A3           110.23430000
   A4           113.90160000
   A5           122.61250000
   A6           114.38530000
   A7           112.26080000
   A8           105.76990000
   D1           101.39360000
   D2           117.85210000
   D3          -121.64540000
   D4          -171.93000000
   D5             8.89710000
   D6          -136.97150000
   D7            -1.38660000

