%chk=tct_Best_geom_MP2_aug_cc-pVQZ.chk
%nprocshared=28
%mem=100GB
#p MP2 aug-cc-pvqz

start best geom PCCP paper

0 1
 C              
 O                  1            B1
 O                  1            B2    2            A1
 H                  2            B3    1            A2    3            D1    0
 C                  1            B4    3            A3    2            D2    0
 N                  5            B5    1            A4    3            D3    0
 H                  5            B6    1            A5    3            D4    0
 H                  5            B7    1            A6    3            D5    0
 H                  6            B8    5            A7    1            D6    0
 H                  6            B9    5            A8    1            D7    0

   B1             1.34824000
   B2             1.20339000
   B3             0.96562100
   B4             1.51736000
   B5             1.44458000
   B6             1.08990000
   B7             1.08990000
   B8             1.00975000
   B9             1.00975000
   A1           122.72896000
   A2           106.37597000
   A3           123.80161000
   A4           118.62999000
   A5           105.95621000
   A6           105.95621000
   A7           111.34671000
   A8           111.34671000
   D1             0.00000000
   D2           180.00000000
   D3           180.00000000
   D4            56.19793000
   D5           -56.19793000
   D6            59.71795000
   D7           -59.71795000

