%chk=gct_Best_geom_CCSDT_cc-pwCVTZ-fc.chk
%nprocshared=64
%mem=100GB
#p CCSD(T)/gen

start best geom PCCP paper

0 1
 C              
 O                  1            B1
 O                  1            B2    2            A1
 H                  2            B3    1            A2    3            D1    0
 C                  1            B4    3            A3    2            D2    0
 N                  5            B5    1            A4    3            D3    0
 H                  5            B6    1            A5    3            D4    0
 H                  5            B7    1            A6    3            D5    0
 H                  6            B8    5            A7    1            D6    0
 H                  6            B9    5            A8    1            D7    0

   B1             1.34860000
   B2             1.20239000
   B3             0.96515200
   B4             1.50625000
   B5             1.45443000
   B6             1.09773000
   B7             1.08654000
   B8             1.00989000
   B9             1.01063000
   A1           122.85413000
   A2           106.77622000
   A3           125.06726000
   A4           111.81084000
   A5           105.69489000
   A6           106.99660000
   A7           110.58167000
   A8           111.13985000
   D1             0.85877600
   D2          -176.83260000
   D3          -146.04703000
   D4            88.80239000
   D5           -25.78313000
   D6          -178.47161000
   D7           -58.48891000

@/home/hexuye/glycine/cc-pwcvtz.0.gbs










