%chk=VII_tcc_Best_geom_MP2_cc_pwCVTZ-fc.chk
%nprocshared=28
%mem=100GB
#p MP2/gen

VII_SP

0 1
 C              
 O                  1            B1
 O                  1            B2    2            A1
 H                  2            B3    1            A2    3            D1    0
 C                  1            B4    3            A3    2            D2    0
 N                  5            B5    1            A4    3            D3    0
 H                  5            B6    1            A5    3            D4    0
 H                  5            B7    1            A6    3            D5    0
 H                  6            B8    5            A7    1            D6    0
 H                  6            B9    5            A8    1            D7    0

   B1             1.34573550
   B2             1.19814681
   B3             0.96472033
   B4             1.52715094
   B5             1.44047578
   B6             1.08922214
   B7             1.08922214
   B8             1.00565830
   B9             1.00565830
   A1           121.21259871
   A2           108.75235793
   A3           122.19981511
   A4           118.81834226
   A5           105.99599411
   A6           105.99599411
   A7           116.68391241
   A8           116.68391241
   D1           180.00000000
   D2           180.00000000
   D3           180.00000000
   D4            56.33573548
   D5           -56.33573548
   D6           -68.87806903
   D7            68.87806903

@/home/shuchong/Basis_sets/cc-pwcvtz.0.gbs







