%nprocshared=64
%mem=60GB
%chk=npII_MP2-cc-pwCVTZ-fc.chk
#p MP2/gen

SP

0 1
 C                  0.00000000    0.00000000    0.00000000
 H                  0.00000000    0.00000000    1.09325266
 H                  1.04549914    0.00000000   -0.31618638
 C                 -0.57005341    1.33729801   -0.43850193
 O                 -0.24556622    2.38616510    0.12966506
 N                 -1.42370061    1.29526413   -1.47076527
 H                 -1.62029851    0.37670418   -1.84358707
 C                 -1.94237531    2.49486721   -2.10548078
 H                 -1.11665497    3.19281955   -2.27371172
 H                 -2.38246697    2.22292565   -3.06068745
 C                 -3.01663742    3.21030769   -1.28389171
 O                 -4.11587469    3.43975267   -1.72228820
 O                 -2.64106756    3.58412564   -0.05796843
 H                 -1.70543053    3.31507869    0.10040476
 N                 -0.69418096   -1.13165311   -0.60976437
 H                 -0.06936978   -1.91513738   -0.74112073
 H                 -1.45466569   -1.45069925   -0.02276033

@/home/malgo/ping/cc-pwcvtz.0.gbs

