%chk=ttt_Best_geom_CCSDT_CVTZ_Full.chk
%nprocshared=12
%mem=100GB
#P CCSD(T)=Full gen 

start best geom PCCP paper

0 1
C                 
O 1 B1           
O 1 B2 2 A1      
H 2 B3 1 A2 3 D1 
C 1 B4 3 A3 2 D2 
N 5 B5 1 A4 3 D3 
H 5 B6 1 A5 3 D4 
H 5 B6 1 A5 3 D4m
H 6 B8 5 A7 1 D6 
H 6 B8 5 A7 1 D6m 

B1=	1.3486
B2=	1.2025
A1=	123.0718
B3=	0.9651
A2=	107.1011
B4=	1.5141
A3=	125.7700
B5=	1.4420
A4=	115.3802
B6=	1.0905
A5=	107.3709
D4=	-123.1312
D4m=	123.1312
B8=	1.0109
A7=	110.5508
D6=	-58.6741
D6m=	58.6741
D1 =   0.0		
D2 =   180.0 		
D3 =   0.0	

@/public/home/users/shu004/Basis_sets/cc-pCVTZ.gbs


