%chk=ttc_Best_geom_CCSDT_jun_cc-pVTZ.chk
%nprocshared=28
%mem=100GB
#p #p CCSD(T)/jun-cc-pvtz

start best geom PCCP paper

0 1
 C              
 O                  1            B1
 O                  1            B2    2            A1
 H                  2            B3    1            A2    3            D1    0
 C                  1            B4    3            A3    2            D2    0
 N                  5            B5    1            A4    3            D3    0
 H                  5            B6    1            A5    3            D4    0
 H                  5            B7    1            A6    3            D5    0
 H                  6            B8    5            A7    1            D6    0
 H                  6            B9    5            A8    1            D7    0

   B1             1.35431000
   B2             1.19608000
   B3             0.96190600
   B4             1.52269000
   B5             1.44073000
   B6             1.09261000
   B7             1.09261000
   B8             1.01113000
   B9             1.01113000
   A1           120.26189000
   A2           110.63119000
   A3           124.62553000
   A4           115.35662000
   A5           107.80356000
   A6           107.80356000
   A7           110.22995000
   A8           110.22995000
   D1           180.00000000
   D2           180.00000000
   D3            -0.00000000
   D4          -122.62433000
   D5           122.62433000
   D6           -58.35404000
   D7            58.35404000

 




