%chk=VIII_gtc_Best_geom_HF_V5Z.chk
%nprocshared=32
%mem=100GB
#P HF cc-pV5Z

VIII_SP

0 1
 C              
 O     1     B1
 O     1     B2    2    A1
 H     2     B3    1    A2    3    D1    
 C     1     B4    3    A3    2    D2    
 N     5     B5    1    A4    3    D3    
 H     5     B6    1    A5    3    D4    
 H     5     B7    1    A6    3    D5    
 H     6     B8    5    A7    1    D6    
 H     6     B9    5    A8    1    D7    

B1	1.350639199
B2	1.196528699
B3	0.961654864
B4	1.514064823
B5	1.446363011
B6	1.096841522
B7	1.093775389
B8	1.008066405
B9	1.012597049
A1	120.3932146
A2	110.5740242
A3	124.0964059
A4	110.3514816
A5	106.104928
A6	108.591649
A7	112.0878145
A8	109.6684359
D1	-178.19299
D2	178.4170875
D3	14.5342408
D4	-109.3302257
D5	135.7513316
D6	-144.9571968
D7	-23.85712294





