%chk=VIII_gtc_Best_geom_MP2_jun_cc_pVQZ.chk
%nprocshared=28
%mem=100GB
#p mp2/jun-cc-pvqz

VIII_SP

0 1
 C              
 O                  1            B1
 O                  1            B2    2            A1
 H                  2            B3    1            A2    3            D1    0
 C                  1            B4    3            A3    2            D2    0
 N                  5            B5    1            A4    3            D3    0
 H                  5            B6    1            A5    3            D4    0
 H                  5            B7    1            A6    3            D5    0
 H                  6            B8    5            A7    1            D6    0
 H                  6            B9    5            A8    1            D7    0

   B1             1.35063920
   B2             1.19652870
   B3             0.96165486
   B4             1.51406482
   B5             1.44636301
   B6             1.09684152
   B7             1.09377539
   B8             1.00806641
   B9             1.01259705
   A1           120.39321460
   A2           110.57402420
   A3           124.09640590
   A4           110.35148160
   A5           106.10492800
   A6           108.59164900
   A7           112.08781450
   A8           109.66843590
   D1          -178.19299000
   D2           178.41708750
   D3            14.53424080
   D4          -109.33022570
   D5           135.75133160
   D6          -144.95719680
   D7           -23.85712294

