%chk=tct_Best_geom_HF_jun-cc-pV5Z.chk
%nprocshared=16
%mem=100GB
#P HF jun-cc-pV5Z 

start best geom PCCP paper

0 1
C                
O 1 B1           
O 1 B2 2 A1      
H 2 B3 1 A2 3 D1 
C 1 B4 3 A3 2 D2 
N 5 B5 1 A4 3 D3 
H 5 B6 1 A5 3 D4 
H 5 B6 1 A5 3 D4m
H 6 B8 5 A7 1 D6 
H 6 B8 5 A7 1 D6m

B1	=	1.34824
B2	=	1.20339
A1	=	122.72896
B3	=	0.965621
A2	=	106.37597
B4	=	1.51736
A3	=	123.80161
B5	=	1.44458
A4	=	118.62999
B6	=	1.0899
A5	=	105.95621
D4	=	56.19793
D4m	=	-56.19793
B8	=	1.00975
A7	=	111.34671
D6	=	59.71795
D6m	=	-59.71795
D1 = 0.0
D2 = 180.0
D3 = 180.0





