%nprocshared=64
%mem=60GB
%chk=c7_MP2-cc-pCVTZ-ae.chk
#p MP2=full/gen

opt

0 1
 C                  0.00000000    0.00000000    0.00000000
 C                  0.00000000    0.00000000    1.52634490
 N                  1.22887295    0.00000000    2.08333389
 H                  2.05189728    0.00000000    1.49958600
 H                  1.29974412    0.00000000    3.08426550
 O                 -1.03756181    0.00000000    2.16410265
 N                  0.57967471   -1.20142843   -0.56801010
 C                  1.91545247   -1.36129600   -0.70551314
 O                  2.70388858   -0.49130926   -0.35364079
 H                 -0.03319475   -1.93647512   -0.86792596
 C                  2.37627299   -2.65910243   -1.31095380
 H                  3.03665376   -2.43480201   -2.14486896
 H                  1.55430241   -3.28347578   -1.65339974
 H                  2.95120910   -3.20160838   -0.56320325
 H                  0.56597042    0.86302157   -0.35125184
 H                 -1.02784913    0.07464266   -0.33971295

@/home/malgo/ping/cc_pCVTZ_CHON.gbs 



