%nprocshared=28
%mem=120GB
%chk=c7_MP2-cc-pwCVTZ-fc.chk
#p MP2/gen

sp

0 1
 C                  0.00000000    0.00000000    0.00000000
 O                  0.00000000    0.00000000    1.23026207
 N                  1.14737849    0.00000000   -0.72047019
 H                  1.09669926    0.06704986   -1.72347402
 C                  2.47006542   -0.03709165   -0.10483119
 H                  2.37185351   -0.64220198    0.79945648
 C                  3.47022636   -0.65184349   -1.06303694
 H                  3.16045215   -1.66291702   -1.33171207
 H                  3.56066694   -0.04282719   -1.96399459
 H                  4.45558172   -0.69180426   -0.60057185
 C                  2.89428975    1.38294831    0.30920860
 O                  3.75374246    2.00873784   -0.29166986
 N                  2.22694174    1.85251533    1.39037509
 H                  1.42804301    1.33957279    1.74097878
 H                  2.36756335    2.81436139    1.65011373
 C                 -1.28334453   -0.00629719   -0.79291727
 H                 -1.86855501    0.86980553   -0.51315331
 H                 -1.12376461   -0.00605284   -1.87109304
 H                 -1.85585559   -0.89094545   -0.51333305

@/home/shuchong/Basis_sets/cc-pwcvtz.0.gbs



