%chk=gtt_Best_geom_CCSDT_aug_cc-pVTZ.chk
%nprocshared=28
%mem=100GB
#p ccsd(t) aug-cc-pvtz

start best geom PCCP paper

0 1
 C              
 O                  1            B1
 O                  1            B2    2            A1
 H                  2            B3    1            A2    3            D1    0
 C                  1            B4    3            A3    2            D2    0
 N                  5            B5    1            A4    3            D3    0
 H                  5            B6    1            A5    3            D4    0
 H                  5            B7    1            A6    3            D5    0
 H                  6            B8    5            A7    1            D6    0
 H                  6            B9    5            A8    1            D7    0

   B1             1.34608000
   B2             1.20274000
   B3             0.96513000
   B4             1.50353000
   B5             1.44879000
   B6             1.09682000
   B7             1.08963000
   B8             1.00859000
   B9             1.01187000
   A1           123.21263000
   A2           106.96010000
   A3           125.17128000
   A4           110.05161000
   A5           105.63960000
   A6           108.30581000
   A7           111.64684000
   A8           110.28053000
   D1             1.12063000
   D2           178.03326000
   D3            18.04528000
   D4          -106.18775000
   D5           139.44601000
   D6          -155.36007000
   D7           -34.31555000

